[TITLE]
Scenario: 2007Demand 
Date: 10/9/2013 4:05:12 PM 

[JUNCTIONS]
;ID              	Elev        	Demand      	Pattern         
 J-88            	353.635986328125	0           	                	;
 J-281           	324.019989013672	0.283355568210117	MaxDayDemand    	;
 J-94            	325.75      	0.292576587706016	MaxDayDemand    	;
 J-244           	378.710998535156	0.164119628978573	MaxDayDemand    	;
 J-139           	398.363006591797	1.53703345947859	MaxDayDemand    	;
 J-96            	413.569000244141	0           	                	;
 J-165           	398.664001464844	0.536975945396035	MaxDayDemand    	;
 J-227           	331.884002685547	0           	                	;
 J-155           	429.109008789063	0           	                	;
 J-170           	307.152008056641	0           	                	;
 J-89            	353.635986328125	0           	                	;
 J-282           	326.781005859375	1.01209669753849	MaxDayDemand    	;
 J-112           	367.7919921875	0           	                	;
 J-149           	351.635009765625	0.984634311624423	MaxDayDemand    	;
 J-137           	380.533996582031	0.583752563220841	MaxDayDemand    	;
 J-280           	307.039001464844	0           	                	;
 J-108           	382.276000976563	2.8010546797811	MaxDayDemand    	;
 J-223           	381.664001464844	0.745609643607759	MaxDayDemand    	;
 J-81            	351.635009765625	0.266431430795747	MaxDayDemand    	;
 J-279           	335.760986328125	0           	                	;
 J-65            	411.384002685547	0           	                	;
 J-307           	449.700988769531	2.75936816801092	MaxDayDemand    	;
 J-200           	451.135986328125	0.293100172920886	MaxDayDemand    	;
 J-110           	419.029998779297	0           	                	;
 J-234           	354.688995361328	1.22777966877771	MaxDayDemand    	;
 J-228           	448.276000976563	0           	                	;
 J-109           	381.848999023438	0.0209723126745281	MaxDayDemand    	;
 J-134           	418.984008789063	0           	                	;
 J-95            	413.569000244141	0.0222141194550842	MaxDayDemand    	;
 J-226           	348.260986328125	0           	                	;
 J-232           	307.6669921875	8.99936123617572	MaxDayDemand    	;
 J-186           	419.444000244141	0           	                	;
 J-23            	347.502014160156	0           	                	;
 J-249           	404.824005126953	1.14447864418511	MaxDayDemand    	;
 J-57            	422.967987060547	3.41609934007094	MaxDayDemand    	;
 J-52            	415.335998535156	1.10007319349814	MaxDayDemand    	;
 J-38            	382.471984863281	0.288329327793708	MaxDayDemand    	;
 J-264           	397.265991210938	0           	                	;
 J-75            	422.967987060547	0           	                	;
 J-293           	298.503997802734	0           	                	;
 J-160           	307.152008056641	0           	                	;
 J-53            	415.335998535156	1.43159201650636	MaxDayDemand    	;
 J-221           	381.914001464844	0.396030250504664	MaxDayDemand    	;
 J-17            	401.526000976563	0           	                	;
 J-119           	350.713012695313	2.9796441037328	MaxDayDemand    	;
 J-190           	372.355987548828	2.58223008399532	MaxDayDemand    	;
 J-253           	452.683013916016	0.168801105689393	MaxDayDemand    	;
 J-305           	294.929992675781	0           	                	;
 J-188           	347.464996337891	0           	                	;
 J-21            	346.125     	0           	                	;
 J-83            	381.664001464844	0           	                	;
 J-6             	350.694000244141	0           	                	;
 J-42            	303.703002929688	0           	                	;
 J-309           	358.835998535156	30.9782438387522	MaxDayDemand    	;
 J-13            	315.536987304688	24.1076181726127	MaxDayDemand    	;
 J-233           	353.100006103516	0           	                	;
 J-224           	298.490997314453	0           	                	;
 J-62            	405.962005615234	0           	                	;
 J-243           	378.635986328125	0           	                	;
 J-225           	343.707000732422	0           	                	;
 J-296           	300.507995605469	0           	                	;
 J-97            	428.269989013672	0.509834750999533	MaxDayDemand    	;
 J-82            	351.635009765625	0           	                	;
 J-133           	368.707000732422	25.8324931255181	MaxDayDemand    	;
 J-222           	388.470001220703	0           	                	;
 J-361           	298.634002685547	0           	                	;
 J-130           	403.179992675781	0.0351808850277146	MaxDayDemand    	;
 J-78            	394.959991455078	0           	                	;
 J-251           	329.040008544922	0.517469285462092	MaxDayDemand    	;
 J-1             	321.808990478516	0           	                	;
 J-93            	325.75      	0.110824922482768	MaxDayDemand    	;
 J-191           	411.5419921875	0           	                	;
 J-120           	350.713012695313	0           	                	;
 J-182           	387.829986572266	0           	                	;
 J-43            	319.927001953125	32.8874166598151	MaxDayDemand    	;
 J-265           	401.057006835938	0.0861013512315614	MaxDayDemand    	;
 J-168           	376.407012939453	0.797219523042142	MaxDayDemand    	;
 J-145           	327.256988525391	2.2529118054825	MaxDayDemand    	;
 J-41            	303.703002929688	0           	                	;
 J-66            	401.526000976563	0           	                	;
 J-103           	439.592010498047	0.113082245064353	MaxDayDemand    	;
 J-50            	381.914001464844	0           	                	;
 J-204           	337.617004394531	0           	                	;
 J-29            	347.941986083984	0           	                	;
 J-73            	303.875     	0           	                	;
 J-140           	407.606994628906	2.21870277432895	MaxDayDemand    	;
 J-312           	324.835998535156	0           	                	;
 J-246           	420.515991210938	0.249996592100402	MaxDayDemand    	;
 J-118           	415.335998535156	0.208202281727731	MaxDayDemand    	;
 J-286           	430.078002929688	2.04951488939629	MaxDayDemand    	;
 J-71            	419.942993164063	0           	                	;
 J-277           	338.286987304688	1.77714651886887	MaxDayDemand    	;
 J-70            	419.946014404297	0           	                	;
 J-214           	298.490997314453	0           	                	;
 J-116           	387.756988525391	1.08276134381438	MaxDayDemand    	;
 J-19            	319.927001953125	0           	                	;
 J-99            	368         	1.88761897183138	MaxDayDemand    	;
 J-181           	387.674987792969	0           	                	;
 J-107           	307.152008056641	0           	                	;
 J-61            	349.223999023438	0           	                	;
 J-167           	409.191986083984	0.836284108974759	MaxDayDemand    	;
 J-101           	349.223999023438	0           	                	;
 J-60            	349.223999023438	0           	                	;
 J-241           	344.571990966797	0           	                	;
 J-68            	405.657989501953	2.87615147373788	MaxDayDemand    	;
 J-230           	390.665985107422	1.08172445411334	MaxDayDemand    	;
 J-210           	327.490997314453	0.761744990185921	MaxDayDemand    	;
 J-237           	418.148986816406	0           	                	;
 J-273           	400.759002685547	0           	                	;
 J-201           	451.135986328125	0.000564649460304223	MaxDayDemand    	;
 J-295           	371.602996826172	0           	                	;
 J-193           	301.859985351563	4.75603062722104	MaxDayDemand    	;
 J-132           	382.276000976563	0           	                	;
 J-184           	300.709991455078	0           	                	;
 J-152           	380.533996582031	0.0520430012291935	MaxDayDemand    	;
 J-15            	358.686004638672	0           	                	;
 J-162           	413.569000244141	0.161295039394243	MaxDayDemand    	;
 J-45            	394.959991455078	0           	                	;
 J-49            	387.753997802734	0           	                	;
 J-2             	321.808990478516	0           	                	;
 J-127           	356.441009521484	0.634136079859317	MaxDayDemand    	;
 J-173           	305.407012939453	0           	                	;
 J-100           	400.993988037109	0           	                	;
 J-147           	406.428009033203	0.22987874163159	MaxDayDemand    	;
 J-144           	376.407012939453	0           	                	;
 J-284           	325.438995361328	0           	                	;
 J-211           	327.490997314453	0.443527917366242	MaxDayDemand    	;
 J-91            	398.363006591797	0           	                	;
 J-141           	350.713012695313	0           	                	;
 J-150           	462.816009521484	0.0530912273339955	MaxDayDemand    	;
 J-12            	315.536987304688	0           	                	;
 J-272           	369.739013671875	0           	                	;
 J-254           	352.549011230469	0           	                	;
 J-267           	373.658996582031	0           	                	;
 J-194           	404.032989501953	0           	                	;
 J-129           	356.441009521484	1.55042543288399	MaxDayDemand    	;
 J-51            	381.914001464844	0           	                	;
 J-212           	448.376007080078	15.8528605323787	MaxDayDemand    	;
 J-128           	356.441009521484	2.99746573469485	MaxDayDemand    	;
 J-64            	401.526000976563	0           	                	;
 J-105           	441.929992675781	0.0845979681784497	MaxDayDemand    	;
 J-166           	409.191986083984	0.681364738856301	MaxDayDemand    	;
 J-76            	404.032989501953	0           	                	;
 J-171           	349.7919921875	0           	                	;
 J-269           	340.81201171875	0           	                	;
 J-37            	382.471984863281	0           	                	;
 J-158           	387.509002685547	1.05238449249399	MaxDayDemand    	;
 J-175           	372.355987548828	0.562736593248104	MaxDayDemand    	;
 J-255           	467.010986328125	0           	                	;
 J-245           	422.964996337891	0           	                	;
 J-276           	358.665008544922	1.09593470795984	MaxDayDemand    	;
 J-63            	411.384002685547	0           	                	;
 J-297           	441.135009765625	3.34869780569668	MaxDayDemand    	;
 J-199           	303.703002929688	0           	                	;
 J-187           	418.5       	0           	                	;
 J-3             	343.305999755859	22.2240219386149	MaxDayDemand    	;
 J-242           	343.584014892578	0.413317176506189	MaxDayDemand    	;
 J-143           	377.153015136719	0.58856712680627	MaxDayDemand    	;
 J-189           	347.464996337891	1.35442245245664	MaxDayDemand    	;
 J-74            	303.875     	0           	                	;
 J-136           	356.441009521484	0.459537180624793	MaxDayDemand    	;
 J-156           	429.045013427734	0           	                	;
 J-257           	430.071990966797	0           	                	;
 J-248           	329.528991699219	1.968980495752	MaxDayDemand    	;
 J-131           	405.205993652344	0           	                	;
 J-48            	387.753997802734	0           	                	;
 J-256           	466.56298828125	0.0590517162077433	MaxDayDemand    	;
 J-202           	367.403015136719	0           	                	;
 J-304           	422.592987060547	0           	                	;
 J-138           	380.533996582031	0           	                	;
 J-206           	402.230010986328	0           	                	;
 J-258           	355.281005859375	0           	                	;
 J-262           	421.716003417969	12.9200554011936	MaxDayDemand    	;
 J-72            	303.875     	2.82679704904425	MaxDayDemand    	;
 J-250           	403.776000976563	0.277023339624677	MaxDayDemand    	;
 J-40            	368.707000732422	0           	                	;
 J-218           	330.385986328125	0           	                	;
 J-14            	358.686004638672	0           	                	;
 J-44            	394.959991455078	0           	                	;
 J-174           	372.739013671875	0           	                	;
 J-142           	368         	0.315023392432655	MaxDayDemand    	;
 J-115           	387.756988525391	0           	                	;
 J-35            	397.753997802734	0           	                	;
 J-90            	397.753997802734	0           	                	;
 J-203           	365.506011962891	0           	                	;
 J-299           	329.64599609375	0           	                	;
 J-30            	347.941986083984	38.1339611053812	MaxDayDemand    	;
 J-69            	419.946014404297	0           	                	;
 J-113           	367.7919921875	0           	                	;
 J-79            	400.993988037109	0.000494098894226709	MaxDayDemand    	;
 J-183           	300.709991455078	0           	                	;
 J-169           	418.984008789063	1.22579906054718	MaxDayDemand    	;
 J-301           	323.610992431641	1.6576109466062	MaxDayDemand    	;
 J-220           	336.446990966797	0           	                	;
 J-266           	387.674987792969	0           	                	;
 J-47            	387.946014404297	0           	                	;
 J-34            	397.753997802734	0           	                	;
 J-111           	419.029998779297	0.0149448969814531	MaxDayDemand    	;
 J-104           	439.592010498047	0.00239464440573619	MaxDayDemand    	;
 J-240           	422.376007080078	0.136900498897478	MaxDayDemand    	;
 J-205           	337.617004394531	0           	                	;
 J-209           	298.490997314453	0           	                	;
 J-46            	387.946014404297	1.4155949781862	MaxDayDemand    	;
 J-196           	372.739013671875	2.09164012774804	MaxDayDemand    	;
 J-22            	347.502014160156	0           	                	;
 J-172           	327.256988525391	0.375953699093164	MaxDayDemand    	;
 J-39            	368.707000732422	0           	                	;
 J-308           	324.665985107422	10.4390185988103	MaxDayDemand    	;
 J-146           	327.256988525391	0           	                	;
 J-114           	367.7919921875	40.2867390648582	MaxDayDemand    	;
 J-159           	305.407012939453	0           	                	;
 J-294           	328.324005126953	0           	                	;
 J-306           	328.605010986328	0           	                	;
 J-207           	402.230010986328	0.04185446336966	MaxDayDemand    	;
 J-239           	423.279998779297	0           	                	;
 J-77            	404.032989501953	3.5978263405125	MaxDayDemand    	;
 J-213           	445.608001708984	0           	                	;
 J-153           	398.664001464844	3.29628430827125	MaxDayDemand    	;
 J-208           	297.960998535156	0           	                	;
 J-235           	383.701995849609	0           	                	;
 J-92            	398.363006591797	0           	                	;
 J-216           	371.024993896484	1.02710025899685	MaxDayDemand    	;
 J-86            	315.536987304688	0           	                	;
 J-217           	334.966003417969	0           	                	;
 J-126           	407.606994628906	3.35269467522429	MaxDayDemand    	;
 J-67            	405.657989501953	8.97557183133112	MaxDayDemand    	;
 J-148           	405.657989501953	0.0586301148097733	MaxDayDemand    	;
 J-229           	447.519989013672	0           	                	;
 J-123           	462.816009521484	0           	                	;
 J-106           	307.152008056641	0           	                	;
 J-124           	462.816009521484	0           	                	;
 J-215           	374.485992431641	1.33603665317659	MaxDayDemand    	;
 J-84            	428.269989013672	0.0233713341099644	MaxDayDemand    	;
 J-16            	401.526000976563	0           	                	;
 J-4             	343.305999755859	0           	                	;
 J-259           	357.209991455078	1.69422761121175	MaxDayDemand    	;
 J-5             	350.694000244141	0           	                	;
 J-135           	418.984008789063	2.1768231332421	MaxDayDemand    	;
 J-231           	389.753997802734	1.78872996738903	MaxDayDemand    	;
 J-161           	387.753997802734	2.20249025740529	MaxDayDemand    	;
 J-87            	382.471984863281	0.000367554837355805	MaxDayDemand    	;
 J-151           	419.029998779297	0           	                	;
 J-122           	387.946014404297	0.0258436590968602	MaxDayDemand    	;
 J-238           	419.122985839844	0.316378188458806	MaxDayDemand    	;
 J-252           	459.825012207031	0           	                	;
 J-268           	318.917999267578	4.00725773212335	MaxDayDemand    	;
 J-85            	428.269989013672	0.0426864674475996	MaxDayDemand    	;
 J-125           	407.606994628906	0           	                	;
 J-102           	303.703002929688	0           	                	;
 J-18            	319.927001953125	0           	                	;
 J-302           	440.558013916016	0           	                	;
 J-164           	301.730010986328	0           	                	;
 J-56            	422.967987060547	13.0546097929332	MaxDayDemand    	;
 J-98            	368         	4.12466442755258	MaxDayDemand    	;
 J-157           	429.045013427734	0           	                	;
 J-247           	330.346984863281	0           	                	;
 J-117           	404.032989501953	0           	                	;
 J-20            	346.125     	0           	                	;
 J-80            	400.993988037109	0           	                	;
 J-163           	301.234008789063	0           	                	;
 J-283           	320.726013183594	17.547432914525	MaxDayDemand    	;
 J-278           	415.542999267578	0           	                	;
 J-154           	398.664001464844	0.887586673106847	MaxDayDemand    	;
 J-236           	385.273010253906	0.0471683664245259	MaxDayDemand    	;
 J-300           	336.260986328125	0           	                	;
 J-882           	367.4       	0           	                	;
 408-A           	560         	0           	                	;
 408-B           	560         	0           	                	;

[RESERVOIRS]
;ID              	Head        	Pattern         
 R-1             	558         	                	;

[TANKS]
;ID              	Elevation   	InitLevel   	MinLevel    	MaxLevel    	Diameter    	MinVol      	VolCurve

[PIPES]
;ID              	Node1           	Node2           	Length      	Diameter    	Roughness   	MinorLoss   	Status
 321             	J-209           	J-214           	13.9704140349869	6           	100         	0           	Open  	;
 180             	J-111           	J-239           	445.913133894621	4           	100         	0           	Open  	;
 90              	J-272           	J-112           	134.935207773782	16          	100         	0           	Open  	;
 71              	J-16            	J-17            	2.34787255148425	12          	100         	0           	Open  	;
 99              	J-60            	J-61            	4.84366075439012	16          	100         	0           	Open  	;
 176             	J-74            	J-309           	1015.42950998853	16          	100         	0           	Open  	;
 80              	J-134           	J-135           	6.31068917866743	6           	100         	0           	Open  	;
 238             	J-102           	J-193           	30.7427054752781	16          	100         	0           	Open  	;
 32              	J-112           	J-113           	6.04268841218084	8           	100         	0           	Open  	;
 61              	J-98            	J-142           	6.40843215175629	6           	100         	0           	Open  	;
 62              	J-223           	J-47            	241.704295138255	8           	100         	0           	Open  	;
 187             	J-173           	J-66            	1169.38738765168	12          	100         	0           	Open  	;
 171             	J-114           	J-60            	472.67497248019	16          	100         	0           	Open  	;
 247             	J-69            	J-70            	4.98010943162646	12          	100         	0           	Open  	;
 319             	J-300           	J-284           	437.812938738857	4           	100         	0           	Open  	;
 51              	J-20            	J-23            	170.452770705346	4           	100         	0           	Open  	;
 138             	J-215           	J-216           	15.7723483663628	2           	100         	0           	Open  	;
 22              	J-12            	J-86            	5.40708320821349	4           	100         	0           	Open  	;
 327             	J-217           	J-218           	16.0713761648896	6           	100         	0           	Open  	;
 124             	J-170           	J-280           	195.839706561157	2           	100         	0           	Open  	;
 164             	J-148           	J-37            	430.312042412106	4           	100         	0           	Open  	;
 26              	J-249           	J-153           	390.289509206597	4           	100         	0           	Open  	;
 181             	J-151           	J-110           	6.61521415424249	8           	100         	0           	Open  	;
 309             	J-15            	J-35            	774.808125171535	4           	100         	0           	Open  	;
 157             	J-65            	J-95            	87.3053755081587	8           	100         	0           	Open  	;
 150             	J-53            	J-237           	341.141292829225	4           	100         	0           	Open  	;
 117             	J-276           	J-277           	181.411628385855	2           	100         	0           	Open  	;
 47              	J-127           	J-136           	6.32152514363423	4           	100         	0           	Open  	;
 97              	J-18            	J-19            	2.41868229600879	12          	100         	0           	Open  	;
 102             	J-304           	J-156           	655.73744703439	12          	100         	0           	Open  	;
 250             	J-6             	J-254           	49.1965145351556	2           	100         	0           	Open  	;
 131             	J-88            	J-89            	5.46689370539732	2           	100         	0           	Open  	;
 186             	J-107           	J-160           	7.96713730336736	12          	100         	0           	Open  	;
 170             	J-293           	J-12            	313.846591338596	16          	100         	0           	Open  	;
 196             	J-123           	J-124           	6.15078364860019	8           	100         	0           	Open  	;
 56              	J-233           	J-168           	462.32685555042	6           	100         	0           	Open  	;
 207             	J-137           	J-138           	6.34904724555401	6           	100         	0           	Open  	;
 278             	J-51            	J-83            	5.34333213006628	8           	100         	0           	Open  	;
 95              	J-127           	J-129           	6.23809341336754	4           	100         	0           	Open  	;
 54              	J-131           	J-84            	476.258932927604	6           	100         	0           	Open  	;
 233             	J-182           	J-76            	428.351663317517	8           	100         	0           	Open  	;
 312             	J-167           	J-278           	185.059608498484	8           	100         	0           	Open  	;
 298             	J-166           	J-34            	254.080610792324	6           	100         	0           	Open  	;
 68              	J-67            	J-68            	4.97500743181445	12          	100         	0           	Open  	;
 227             	J-174           	J-175           	8.08551885624499	6           	100         	0           	Open  	;
 39              	J-104           	J-105           	5.93526772154408	4           	100         	0           	Open  	;
 213             	J-105           	J-252           	155.502350384162	4           	100         	0           	Open  	;
 136             	J-241           	J-242           	38.1800320719205	2           	100         	0           	Open  	;
 194             	J-96            	J-123           	469.125677535531	8           	100         	0           	Open  	;
 127             	J-239           	J-240           	36.5299062734401	2           	100         	0           	Open  	;
 302             	J-44            	J-78            	5.08673340821725	4           	100         	0           	Open  	;
 81              	J-49            	J-222           	23.6303268329385	6           	100         	0           	Open  	;
 193             	J-157           	J-151           	258.062623469198	8           	100         	0           	Open  	;
 57              	J-93            	J-81            	562.137378502932	4           	100         	0           	Open  	;
 37              	J-156           	J-157           	6.82498858904	8           	100         	0           	Open  	;
 115             	J-212           	J-213           	14.8252459626569	16          	100         	0           	Open  	;
 77              	J-82            	J-149           	6.56119263325936	6           	100         	0           	Open  	;
 172             	J-61            	J-72            	964.043923616125	16          	100         	0           	Open  	;
 246             	J-71            	J-69            	4.98057808571733	12          	100         	0           	Open  	;
 69              	J-47            	J-122           	6.15060934246999	8           	100         	0           	Open  	;
 93              	J-115           	J-158           	6.91936465617534	4           	100         	0           	Open  	;
 304             	J-78            	J-273           	135.193316962844	4           	100         	0           	Open  	;
 325             	J-217           	J-227           	28.9277365938406	4           	100         	0           	Open  	;
 116             	J-222           	J-46            	20.3847724176562	6           	100         	0           	Open  	;
 147             	J-69            	J-262           	70.2881743258393	2           	100         	0           	Open  	;
 49              	J-20            	J-21            	2.67698803815106	4           	100         	0           	Open  	;
 105             	J-160           	J-170           	7.46547813260439	4           	100         	0           	Open  	;
 28              	J-145           	J-146           	6.4399697108937	4           	100         	0           	Open  	;
 31              	J-88            	J-139           	743.636510422808	6           	100         	0           	Open  	;
 35              	J-37            	J-87            	5.4691757192818	4           	100         	0           	Open  	;
 135             	J-210           	J-211           	14.5186650450037	2           	100         	0           	Open  	;
 107             	J-159           	J-160           	6.97764262081722	6           	100         	0           	Open  	;
 305             	J-45            	J-14            	604.239067210519	4           	100         	0           	Open  	;
 73              	J-23            	J-29            	20.5697119276975	4           	100         	0           	Open  	;
 178             	J-301           	J-199           	409.016066804903	16          	100         	0           	Open  	;
 52              	J-171           	J-29            	7.48225639283866	4           	100         	0           	Open  	;
 316             	J-204           	J-269           	103.724631189673	4           	100         	0           	Open  	;
 144             	J-188           	J-189           	10.3040657403923	2           	100         	0           	Open  	;
 219             	J-142           	J-115           	486.004093894276	6           	100         	0           	Open  	;
 46              	J-186           	J-187           	10.3036345096519	8           	100         	0           	Open  	;
 133             	J-247           	J-248           	39.8610075054361	2           	100         	0           	Open  	;
 212             	J-103           	J-104           	5.90334992696367	8           	100         	0           	Open  	;
 198             	J-140           	J-297           	650.140428119945	8           	100         	0           	Open  	;
 126             	J-243           	J-244           	38.9332133142785	2           	100         	0           	Open  	;
 244             	J-228           	J-229           	29.0718668856636	12          	100         	0           	Open  	;
 229             	J-158           	J-127           	901.982270558302	4           	100         	0           	Open  	;
 158             	J-50            	J-51            	4.47655987189291	8           	100         	0           	Open  	;
 29              	J-108           	J-161           	842.688727187888	6           	100         	0           	Open  	;
 113             	J-133           	J-39            	6.30544592484539	16          	100         	0           	Open  	;
 188             	J-38            	J-79            	174.309247573638	4           	100         	0           	Open  	;
 83              	J-79            	J-80            	5.17912331321703	4           	100         	0           	Open  	;
 301             	J-90            	J-44            	164.521217070462	4           	100         	0           	Open  	;
 75              	J-42            	J-102           	5.88079633206003	16          	100         	0           	Open  	;
 222             	J-168           	J-144           	7.35468241060047	6           	100         	0           	Open  	;
 252             	J-19            	J-43            	4.32924329568865	12          	100         	0           	Open  	;