[TITLE]
Scenario: 2007Demand                                                           
Date: 8/2/2019 1:57:12 PM                                                      

[JUNCTIONS]
;ID              	Elev        	Demand      	Pattern         
 J-88            	353.6360    	0.000000    	                	;
 J-281           	324.0200    	0.000000    	                	;
 J-94            	325.7500    	0.000000    	                	;
 J-244           	378.7110    	0.000000    	                	;
 J-139           	398.3630    	0.000000    	                	;
 J-96            	413.5690    	0.000000    	                	;
 J-165           	398.6640    	0.000000    	                	;
 J-227           	331.8840    	0.000000    	                	;
 J-155           	429.1090    	0.000000    	                	;
 J-170           	307.1520    	0.000000    	                	;
 J-89            	353.6360    	0.000000    	                	;
 J-282           	326.7810    	0.000000    	                	;
 J-112           	367.7920    	0.000000    	                	;
 J-149           	351.6350    	0.000000    	                	;
 J-137           	380.5340    	0.000000    	                	;
 J-280           	307.0390    	0.000000    	                	;
 J-108           	382.2760    	0.000000    	                	;
 J-223           	381.6640    	0.000000    	                	;
 J-81            	351.6350    	0.000000    	                	;
 J-279           	335.7610    	0.000000    	                	;
 J-65            	411.3840    	0.000000    	                	;
 J-307           	449.7010    	0.000000    	                	;
 J-200           	451.1360    	0.000000    	                	;
 J-110           	419.0300    	0.000000    	                	;
 J-234           	354.6890    	0.000000    	                	;
 J-228           	448.2760    	0.000000    	                	;
 J-109           	381.8490    	0.000000    	                	;
 J-134           	418.9840    	0.000000    	                	;
 J-95            	413.5690    	0.000000    	                	;
 J-226           	348.2610    	0.000000    	                	;
 J-232           	307.6670    	0.000000    	                	;
 J-186           	419.4440    	0.000000    	                	;
 J-23            	347.5020    	0.000000    	                	;
 J-249           	404.8240    	0.000000    	                	;
 J-57            	422.9680    	0.000000    	                	;
 J-52            	415.3360    	0.000000    	                	;
 J-38            	382.4720    	0.000000    	                	;
 J-264           	397.2660    	0.000000    	                	;
 J-75            	422.9680    	0.000000    	                	;
 J-293           	298.5040    	0.000000    	                	;
 J-160           	307.1520    	0.000000    	                	;
 J-53            	415.3360    	0.000000    	                	;
 J-221           	381.9140    	0.000000    	                	;
 J-17            	401.5260    	0.000000    	                	;
 J-119           	350.7130    	0.000000    	                	;
 J-190           	372.3560    	0.000000    	                	;
 J-253           	452.6830    	0.000000    	                	;
 J-305           	294.9300    	0.000000    	                	;
 J-188           	347.4650    	0.000000    	                	;
 J-21            	346.1250    	0.000000    	                	;
 J-83            	381.6640    	0.000000    	                	;
 J-6             	350.6940    	0.000000    	                	;
 J-42            	303.7030    	0.000000    	                	;
 J-309           	358.8360    	0.000000    	                	;
 J-13            	315.5370    	0.000000    	                	;
 J-233           	353.1000    	0.000000    	                	;
 J-224           	298.4910    	0.000000    	                	;
 J-62            	405.9620    	0.000000    	                	;
 J-243           	378.6360    	0.000000    	                	;
 J-225           	343.7070    	0.000000    	                	;
 J-296           	300.5080    	0.000000    	                	;
 J-97            	428.2700    	0.000000    	                	;
 J-82            	351.6350    	0.000000    	                	;
 J-133           	368.7070    	0.000000    	                	;
 J-222           	388.4700    	0.000000    	                	;
 J-361           	298.6340    	0.000000    	                	;
 J-130           	403.1800    	0.000000    	                	;
 J-78            	394.9600    	0.000000    	                	;
 J-251           	329.0400    	0.000000    	                	;
 J-1             	321.8090    	0.000000    	                	;
 J-93            	325.7500    	0.000000    	                	;
 J-191           	411.5420    	0.000000    	                	;
 J-120           	350.7130    	0.000000    	                	;
 J-182           	387.8300    	0.000000    	                	;
 J-43            	319.9270    	0.000000    	                	;
 J-265           	401.0570    	0.000000    	                	;
 J-168           	376.4070    	0.000000    	                	;
 J-145           	327.2570    	0.000000    	                	;
 J-41            	303.7030    	0.000000    	                	;
 J-66            	401.5260    	0.000000    	                	;
 J-103           	439.5920    	0.000000    	                	;
 J-50            	381.9140    	0.000000    	                	;
 J-204           	337.6170    	0.000000    	                	;
 J-29            	347.9420    	0.000000    	                	;
 J-73            	303.8750    	0.000000    	                	;
 J-140           	407.6070    	0.000000    	                	;
 J-312           	324.8360    	0.000000    	                	;
 J-246           	420.5160    	0.000000    	                	;
 J-118           	415.3360    	0.000000    	                	;
 J-286           	430.0780    	0.000000    	                	;
 J-71            	419.9430    	0.000000    	                	;
 J-277           	338.2870    	0.000000    	                	;
 J-70            	419.9460    	0.000000    	                	;
 J-214           	298.4910    	0.000000    	                	;
 J-116           	387.7570    	0.000000    	                	;
 J-19            	319.9270    	0.000000    	                	;
 J-99            	368.0000    	0.000000    	                	;
 J-181           	387.6750    	0.000000    	                	;
 J-107           	307.1520    	0.000000    	                	;
 J-61            	349.2240    	0.000000    	                	;
 J-167           	409.1920    	0.000000    	                	;
 J-101           	349.2240    	0.000000    	                	;
 J-60            	349.2240    	0.000000    	                	;
 J-241           	344.5720    	0.000000    	                	;
 J-68            	405.6580    	0.000000    	                	;
 J-230           	390.6660    	0.000000    	                	;
 J-210           	327.4910    	0.000000    	                	;
 J-237           	418.1490    	0.000000    	                	;
 J-273           	400.7590    	0.000000    	                	;
 J-201           	451.1360    	0.000000    	                	;
 J-295           	371.6030    	0.000000    	                	;
 J-193           	301.8600    	0.000000    	                	;
 J-132           	382.2760    	0.000000    	                	;
 J-184           	300.7100    	0.000000    	                	;
 J-152           	380.5340    	0.000000    	                	;
 J-15            	358.6860    	0.000000    	                	;
 J-162           	413.5690    	0.000000    	                	;
 J-45            	394.9600    	0.000000    	                	;
 J-49            	387.7540    	0.000000    	                	;
 J-2             	321.8090    	0.000000    	                	;
 J-127           	356.4410    	0.000000    	                	;
 J-173           	305.4070    	0.000000    	                	;
 J-100           	400.9940    	0.000000    	                	;
 J-147           	406.4280    	0.000000    	                	;
 J-144           	376.4070    	0.000000    	                	;
 J-284           	325.4390    	0.000000    	                	;
 J-211           	327.4910    	0.000000    	                	;
 J-91            	398.3630    	0.000000    	                	;
 J-141           	350.7130    	0.000000    	                	;
 J-150           	462.8160    	0.000000    	                	;
 J-12            	315.5370    	0.000000    	                	;
 J-272           	369.7390    	0.000000    	                	;
 J-254           	352.5490    	0.000000    	                	;
 J-267           	373.6590    	0.000000    	                	;
 J-194           	404.0330    	0.000000    	                	;
 J-129           	356.4410    	0.000000    	                	;
 J-51            	381.9140    	0.000000    	                	;
 J-212           	448.3760    	0.000000    	                	;
 J-128           	356.4410    	0.000000    	                	;
 J-64            	401.5260    	0.000000    	                	;
 J-105           	441.9300    	0.000000    	                	;
 J-166           	409.1920    	0.000000    	                	;
 J-76            	404.0330    	0.000000    	                	;
 J-171           	349.7920    	0.000000    	                	;
 J-269           	340.8120    	0.000000    	                	;
 J-37            	382.4720    	0.000000    	                	;
 J-158           	387.5090    	0.000000    	                	;
 J-175           	372.3560    	0.000000    	                	;
 J-255           	467.0110    	0.000000    	                	;
 J-245           	422.9650    	0.000000    	                	;
 J-276           	358.6650    	0.000000    	                	;
 J-63            	411.3840    	0.000000    	                	;
 J-297           	441.1350    	0.000000    	                	;
 J-199           	303.7030    	0.000000    	                	;
 J-187           	418.5000    	0.000000    	                	;
 J-3             	343.3060    	0.000000    	                	;
 J-242           	343.5840    	0.000000    	                	;
 J-143           	377.1530    	0.000000    	                	;
 J-189           	347.4650    	0.000000    	                	;
 J-74            	303.8750    	0.000000    	                	;
 J-136           	356.4410    	0.000000    	                	;
 J-156           	429.0450    	0.000000    	                	;
 J-257           	430.0720    	0.000000    	                	;
 J-248           	329.5290    	0.000000    	                	;
 J-131           	405.2060    	0.000000    	                	;
 J-48            	387.7540    	0.000000    	                	;
 J-256           	466.5630    	0.000000    	                	;
 J-202           	367.4030    	0.000000    	                	;
 J-304           	422.5930    	0.000000    	                	;
 J-138           	380.5340    	0.000000    	                	;
 J-206           	402.2300    	0.000000    	                	;
 J-258           	355.2810    	0.000000    	                	;
 J-262           	421.7160    	0.000000    	                	;
 J-72            	303.8750    	0.000000    	                	;
 J-250           	403.7760    	0.000000    	                	;
 J-40            	368.7070    	0.000000    	                	;
 J-218           	330.3860    	0.000000    	                	;
 J-14            	358.6860    	0.000000    	                	;
 J-44            	394.9600    	0.000000    	                	;
 J-174           	372.7390    	0.000000    	                	;
 J-142           	368.0000    	0.000000    	                	;
 J-115           	387.7570    	0.000000    	                	;
 J-35            	397.7540    	0.000000    	                	;
 J-90            	397.7540    	0.000000    	                	;
 J-203           	365.5060    	0.000000    	                	;
 J-299           	329.6460    	0.000000    	                	;
 J-30            	347.9420    	0.000000    	                	;
 J-69            	419.9460    	0.000000    	                	;
 J-113           	367.7920    	0.000000    	                	;
 J-79            	400.9940    	0.000000    	                	;
 J-183           	300.7100    	0.000000    	                	;
 J-169           	418.9840    	0.000000    	                	;
 J-301           	323.6110    	0.000000    	                	;
 J-220           	336.4470    	0.000000    	                	;
 J-266           	387.6750    	0.000000    	                	;
 J-47            	387.9460    	0.000000    	                	;
 J-34            	397.7540    	0.000000    	                	;
 J-111           	419.0300    	0.000000    	                	;
 J-104           	439.5920    	0.000000    	                	;
 J-240           	422.3760    	0.000000    	                	;
 J-205           	337.6170    	0.000000    	                	;
 J-209           	298.4910    	0.000000    	                	;
 J-46            	387.9460    	0.000000    	                	;
 J-196           	372.7390    	0.000000    	                	;
 J-22            	347.5020    	0.000000    	                	;
 J-172           	327.2570    	0.000000    	                	;
 J-39            	368.7070    	0.000000    	                	;
 J-308           	324.6660    	0.000000    	                	;
 J-146           	327.2570    	0.000000    	                	;
 J-114           	367.7920    	0.000000    	                	;
 J-159           	305.4070    	0.000000    	                	;
 J-294           	328.3240    	0.000000    	                	;
 J-306           	328.6050    	0.000000    	                	;
 J-207           	402.2300    	0.000000    	                	;
 J-239           	423.2800    	0.000000    	                	;
 J-77            	404.0330    	0.000000    	                	;
 J-213           	445.6080    	0.000000    	                	;
 J-153           	398.6640    	0.000000    	                	;
 J-208           	297.9610    	0.000000    	                	;
 J-235           	383.7020    	0.000000    	                	;
 J-92            	398.3630    	0.000000    	                	;
 J-216           	371.0250    	0.000000    	                	;
 J-86            	315.5370    	0.000000    	                	;
 J-217           	334.9660    	0.000000    	                	;
 J-126           	407.6070    	0.000000    	                	;
 J-67            	405.6580    	0.000000    	                	;
 J-148           	405.6580    	0.000000    	                	;
 J-229           	447.5200    	0.000000    	                	;
 J-123           	462.8160    	0.000000    	                	;
 J-106           	307.1520    	0.000000    	                	;
 J-124           	462.8160    	0.000000    	                	;
 J-215           	374.4860    	0.000000    	                	;
 J-84            	428.2700    	0.000000    	                	;
 J-16            	401.5260    	0.000000    	                	;
 J-4             	343.3060    	0.000000    	                	;
 J-259           	357.2100    	0.000000    	                	;
 J-5             	350.6940    	0.000000    	                	;
 J-135           	418.9840    	0.000000    	                	;
 J-231           	389.7540    	0.000000    	                	;
 J-161           	387.7540    	0.000000    	                	;
 J-87            	382.4720    	0.000000    	                	;
 J-151           	419.0300    	0.000000    	                	;
 J-122           	387.9460    	0.000000    	                	;
 J-238           	419.1230    	0.000000    	                	;
 J-252           	459.8250    	0.000000    	                	;
 J-268           	318.9180    	0.000000    	                	;
 J-85            	428.2700    	0.000000    	                	;
 J-125           	407.6070    	0.000000    	                	;
 J-102           	303.7030    	0.000000    	                	;
 J-18            	319.9270    	0.000000    	                	;
 J-302           	440.5580    	0.000000    	                	;
 J-164           	301.7300    	0.000000    	                	;
 J-56            	422.9680    	0.000000    	                	;
 J-98            	368.0000    	0.000000    	                	;
 J-157           	429.0450    	0.000000    	                	;
 J-247           	330.3470    	0.000000    	                	;
 J-117           	404.0330    	0.000000    	                	;
 J-20            	346.1250    	0.000000    	                	;
 J-80            	400.9940    	0.000000    	                	;
 J-163           	301.2340    	0.000000    	                	;
 J-283           	320.7260    	0.000000    	                	;
 J-278           	415.5430    	0.000000    	                	;
 J-154           	398.6640    	0.000000    	                	;
 J-236           	385.2730    	0.000000    	                	;
 J-300           	336.2610    	0.000000    	                	;
 J-882           	367.4000    	0.000000    	                	;
 716-A           	300.0000    	0.000000    	                	;
 716-B           	300.0000    	0.000000    	                	;
 J-281_IR1       	324.0200    	0.000000    	                	;
 J-139_IR1       	398.3630    	0.000000    	                	;
 J-165_IR1       	398.6640    	0.000000    	                	;
 J-149_IR1       	351.6350    	0.000000    	                	;
 J-137_IR1       	380.5340    	0.000000    	                	;
 J-108_IR1       	382.2760    	0.000000    	                	;
 J-223_IR1       	381.6640    	0.000000    	                	;
 J-81_IR1        	351.6350    	0.000000    	                	;
 J-200_IR1       	451.1360    	0.000000    	                	;
 J-109_IR1       	381.8490    	0.000000    	                	;
 J-95_IR1        	413.5690    	0.000000    	                	;
 J-249_IR1       	404.8240    	0.000000    	                	;
 J-57_IR1        	422.9680    	0.000000    	                	;
 J-52_IR1        	415.3360    	0.000000    	                	;
 J-38_IR1        	382.4720    	0.000000    	                	;
 J-53_IR1        	415.3360    	0.000000    	                	;
 J-119_IR1       	350.7130    	0.000000    	                	;
 J-190_IR1       	372.3560    	0.000000    	                	;
 J-309_IR1       	358.8360    	0.000000    	                	;
 J-13_IR1        	315.5370    	0.000000    	                	;
 J-97_IR1        	428.2700    	0.000000    	                	;
 J-133_IR1       	368.7070    	0.000000    	                	;
 J-130_IR1       	403.1800    	0.000000    	                	;
 J-251_IR1       	329.0400    	0.000000    	                	;
 J-93_IR1        	325.7500    	0.000000    	                	;
 J-43_IR1        	319.9270    	0.000000    	                	;
 J-168_IR1       	376.4070    	0.000000    	                	;
 J-145_IR1       	327.2570    	0.000000    	                	;
 J-103_IR1       	439.5920    	0.000000    	                	;
 J-140_IR1       	407.6070    	0.000000    	                	;
 J-118_IR1       	415.3360    	0.000000    	                	;
 J-286_IR1       	430.0780    	0.000000    	                	;
 J-116_IR1       	387.7570    	0.000000    	                	;
 J-99_IR1        	368.0000    	0.000000    	                	;
 J-167_IR1       	409.1920    	0.000000    	                	;
 J-68_IR1        	405.6580    	0.000000    	                	;
 J-230_IR1       	390.6660    	0.000000    	                	;
 J-210_IR1       	327.4910    	0.000000    	                	;
 J-152_IR1       	380.5340    	0.000000    	                	;
 J-127_IR1       	356.4410    	0.000000    	                	;
 J-147_IR1       	406.4280    	0.000000    	                	;
 J-129_IR1       	356.4410    	0.000000    	                	;
 J-212_IR1       	448.3760    	0.000000    	                	;
 J-128_IR1       	356.4410    	0.000000    	                	;
 J-105_IR1       	441.9300    	0.000000    	                	;
 J-166_IR1       	409.1920    	0.000000    	                	;
 J-158_IR1       	387.5090    	0.000000    	                	;
 J-175_IR1       	372.3560    	0.000000    	                	;
 J-276_IR1       	358.6650    	0.000000    	                	;
 J-297_IR1       	441.1350    	0.000000    	                	;
 J-3_IR1         	343.3060    	0.000000    	                	;
 J-143_IR1       	377.1530    	0.000000    	                	;
 J-136_IR1       	356.4410    	0.000000    	                	;
 J-256_IR1       	466.5630    	0.000000    	                	;
 J-72_IR1        	303.8750    	0.000000    	                	;
 J-142_IR1       	368.0000    	0.000000    	                	;
 J-79_IR1        	400.9940    	0.000000    	                	;
 J-169_IR1       	418.9840    	0.000000    	                	;
 J-301_IR1       	323.6110    	0.000000    	                	;
 J-111_IR1       	419.0300    	0.000000    	                	;
 J-104_IR1       	439.5920    	0.000000    	                	;
 J-46_IR1        	387.9460    	0.000000    	                	;
 J-196_IR1       	372.7390    	0.000000    	                	;
 J-172_IR1       	327.2570    	0.000000    	                	;
 J-114_IR1       	367.7920    	0.000000    	                	;
 J-77_IR1        	404.0330    	0.000000    	                	;
 J-153_IR1       	398.6640    	0.000000    	                	;
 J-126_IR1       	407.6070    	0.000000    	                	;
 J-67_IR1        	405.6580    	0.000000    	                	;
 J-148_IR1       	405.6580    	0.000000    	                	;
 J-215_IR1       	374.4860    	0.000000    	                	;
 J-84_IR1        	428.2700    	0.000000    	                	;
 J-135_IR1       	418.9840    	0.000000    	                	;
 J-161_IR1       	387.7540    	0.000000    	                	;
 J-87_IR1        	382.4720    	0.000000    	                	;
 J-122_IR1       	387.9460    	0.000000    	                	;
 J-85_IR1        	428.2700    	0.000000    	                	;
 J-56_IR1        	422.9680    	0.000000    	                	;
 J-98_IR1        	368.0000    	0.000000    	                	;
 J-154_IR1       	398.6640    	0.000000    	                	;
 Meter_J-94_10   	325.7500    	0.000000    	                	;
 IR_J-94_10      	325.7500    	0.200000    	IR_J-94_10      	;
 ND_J-94_10      	325.7500    	0.000000    	                	;
 Meter_J-94_30   	325.7500    	0.000000    	                	;
 IR_J-94_30      	325.7500    	0.200000    	IR_J-94_30      	;
 ND_J-94_30      	325.7500    	0.000000    	                	;
 Meter_J-94_50   	325.7500    	0.000000    	                	;
 IR_J-94_50      	325.7500    	0.200000    	IR_J-94_50      	;
 ND_J-94_50      	325.7500    	0.000000    	                	;
 Meter_J-94_70   	325.7500    	0.000000    	                	;
 IR_J-94_70      	325.7500    	0.200000    	IR_J-94_70      	;
 ND_J-94_70      	325.7500    	0.000000    	                	;
 Meter_J-94_90   	325.7500    	0.000000    	                	;
 IR_J-94_90      	325.7500    	0.200000    	IR_J-94_90      	;
 ND_J-94_90      	325.7500    	0.000000    	                	;
 Meter_J-94_110  	325.7500    	0.000000    	                	;
 IR_J-94_110     	325.7500    	0.200000    	IR_J-94_110     	;
 ND_J-94_110     	325.7500    	0.000000    	                	;
 Meter_J-94_130  	325.7500    	0.000000    	                	;
 IR_J-94_130     	325.7500    	0.200000    	IR_J-94_130     	;
 ND_J-94_130     	325.7500    	0.000000    	                	;
 Meter_J-94_150  	325.7500    	0.000000    	                	;
 IR_J-94_150     	325.7500    	0.200000    	IR_J-94_150     	;
 ND_J-94_150     	325.7500    	0.000000    	                	;
 Meter_J-94_170  	325.7500    	0.000000    	                	;
 IR_J-94_170     	325.7500    	0.200000    	IR_J-94_170     	;
 ND_J-94_170     	325.7500    	0.000000    	                	;
 Meter_J-94_190  	325.7500    	0.000000    	                	;
 IR_J-94_190     	325.7500    	0.200000    	IR_J-94_190     	;
 ND_J-94_190     	325.7500    	0.000000    	                	;
 Meter_J-94_210  	325.7500    	0.000000    	                	;
 IR_J-94_210     	325.7500    	0.200000    	IR_J-94_210     	;
 ND_J-94_210     	325.7500    	0.000000    	                	;
 Meter_J-94_230  	325.7500    	0.000000    	                	;
 IR_J-94_230     	325.7500    	0.200000    	IR_J-94_230     	;
 ND_J-94_230     	325.7500    	0.000000    	                	;
 Meter_J-94_250  	325.7500    	0.000000    	                	;
 IR_J-94_250     	325.7500    	0.200000    	IR_J-94_250     	;
 ND_J-94_250     	325.7500    	0.000000    	                	;
 Meter_J-94_270  	325.7500    	0.000000    	                	;
 IR_J-94_270     	325.7500    	0.200000    	IR_J-94_270     	;
 ND_J-94_270     	325.7500    	0.000000    	                	;
 Meter_J-94_290  	325.7500    	0.000000    	                	;
 IR_J-94_290     	325.7500    	0.200000    	IR_J-94_290     	;
 ND_J-94_290     	325.7500    	0.000000    	                	;
 Meter_J-94_310  	325.7500    	0.000000    	                	;
 IR_J-94_310     	325.7500    	0.200000    	IR_J-94_310     	;
 ND_J-94_310     	325.7500    	0.000000    	                	;
 Meter_J-94_330  	325.7500    	0.000000    	                	;
 IR_J-94_330     	325.7500    	0.200000    	IR_J-94_330     	;
 ND_J-94_330     	325.7500    	0.000000    	                	;
 Meter_J-94_350  	325.7500    	0.000000    	                	;
 IR_J-94_350     	325.7500    	0.200000    	IR_J-94_350     	;
 ND_J-94_350     	325.7500    	0.000000    	                	;
 Meter_J-244_10  	378.7110    	0.000000    	                	;
 IR_J-244_10     	378.7110    	0.200000    	IR_J-244_10     	;
 ND_J-244_10     	378.7110    	0.000000    	                	;
 Meter_J-244_30  	378.7110    	0.000000    	                	;
 IR_J-244_30     	378.7110    	0.200000    	IR_J-244_30     	;
 ND_J-244_30     	378.7110    	0.000000    	                	;
 Meter_J-244_50  	378.7110    	0.000000    	                	;
 IR_J-244_50     	378.7110    	0.200000    	IR_J-244_50     	;
 ND_J-244_50     	378.7110    	0.000000    	                	;
 Meter_J-244_70  	378.7110    	0.000000    	                	;
 IR_J-244_70     	378.7110    	0.200000    	IR_J-244_70     	;
 ND_J-244_70     	378.7110    	0.000000    	                	;
 Meter_J-244_90  	378.7110    	0.000000    	                	;
 IR_J-244_90     	378.7110    	0.200000    	IR_J-244_90     	;
 ND_J-244_90     	378.7110    	0.000000    	                	;
 Meter_J-244_110 	378.7110    	0.000000    	                	;
 IR_J-244_110    	378.7110    	0.200000    	IR_J-244_110    	;
 ND_J-244_110    	378.7110    	0.000000    	                	;
 Meter_J-244_130 	378.7110    	0.000000    	                	;
 IR_J-244_130    	378.7110    	0.200000    	IR_J-244_130    	;
 ND_J-244_130    	378.7110    	0.000000    	                	;
 Meter_J-244_150 	378.7110    	0.000000    	                	;
 IR_J-244_150    	378.7110    	0.200000    	IR_J-244_150    	;
 ND_J-244_150    	378.7110    	0.000000    	                	;
 Meter_J-244_170 	378.7110    	0.000000    	                	;
 IR_J-244_170    	378.7110    	0.200000    	IR_J-244_170    	;
 ND_J-244_170    	378.7110    	0.000000    	                	;
 Meter_J-244_190 	378.7110    	0.000000    	                	;
 IR_J-244_190    	378.7110    	0.200000    	IR_J-244_190    	;
 ND_J-244_190    	378.7110    	0.000000    	                	;
 Meter_J-244_210 	378.7110    	0.000000    	                	;
 IR_J-244_210    	378.7110    	0.200000    	IR_J-244_210    	;
 ND_J-244_210    	378.7110    	0.000000    	                	;
 Meter_J-244_230 	378.7110    	0.000000    	                	;
 IR_J-244_230    	378.7110    	0.200000    	IR_J-244_230    	;
 ND_J-244_230    	378.7110    	0.000000    	                	;
 Meter_J-244_250 	378.7110    	0.000000    	                	;
 IR_J-244_250    	378.7110    	0.200000    	IR_J-244_250    	;
 ND_J-244_250    	378.7110    	0.000000    	                	;
 Meter_J-244_270 	378.7110    	0.000000    	                	;
 IR_J-244_270    	378.7110    	0.200000    	IR_J-244_270    	;
 ND_J-244_270    	378.7110    	0.000000    	                	;
 Meter_J-244_290 	378.7110    	0.000000    	                	;
 IR_J-244_290    	378.7110    	0.200000    	IR_J-244_290    	;
 ND_J-244_290    	378.7110    	0.000000    	                	;
 Meter_J-244_310 	378.7110    	0.000000    	                	;
 IR_J-244_310    	378.7110    	0.200000    	IR_J-244_310    	;
 ND_J-244_310    	378.7110    	0.000000    	                	;
 Meter_J-244_330 	378.7110    	0.000000    	                	;
 IR_J-244_330    	378.7110    	0.200000    	IR_J-244_330    	;
 ND_J-244_330    	378.7110    	0.000000    	                	;
 Meter_J-244_350 	378.7110    	0.000000    	                	;
 IR_J-244_350    	378.7110    	0.200000    	IR_J-244_350    	;
 ND_J-244_350    	378.7110    	0.000000    	                	;
 Meter_J-282_10  	326.7810    	0.000000    	                	;
 IR_J-282_10     	326.7810    	0.200000    	IR_J-282_10     	;
 ND_J-282_10     	326.7810    	0.000000    	                	;
 Meter_J-282_30  	326.7810    	0.000000    	                	;
 IR_J-282_30     	326.7810    	0.200000    	IR_J-282_30     	;
 ND_J-282_30     	326.7810    	0.000000    	                	;
 Meter_J-282_50  	326.7810    	0.000000    	                	;
 IR_J-282_50     	326.7810    	0.200000    	IR_J-282_50     	;
 ND_J-282_50     	326.7810    	0.000000    	                	;
 Meter_J-282_70  	326.7810    	0.000000    	                	;
 IR_J-282_70     	326.7810    	0.200000    	IR_J-282_70     	;
 ND_J-282_70     	326.7810    	0.000000    	                	;
 Meter_J-282_90  	326.7810    	0.000000    	                	;
 IR_J-282_90     	326.7810    	0.200000    	IR_J-282_90     	;
 ND_J-282_90     	326.7810    	0.000000    	                	;
 Meter_J-282_110 	326.7810    	0.000000    	                	;