[TITLE]
Scenario: 2007Demand                                                           
Date: 8/2/2019 1:57:12 PM                                                      

[JUNCTIONS]
 J-88                                353.6360
 J-281                               324.0200
 J-94                                325.7500
 J-244                               378.7110
 J-139                               398.3630
 J-96                                413.5690
 J-165                               398.6640
 J-227                               331.8840
 J-155                               429.1090
 J-170                               307.1520
 J-89                                353.6360
 J-282                               326.7810
 J-112                               367.7920
 J-149                               351.6350
 J-137                               380.5340
 J-280                               307.0390
 J-108                               382.2760
 J-223                               381.6640
 J-81                                351.6350
 J-279                               335.7610
 J-65                                411.3840
 J-307                               449.7010
 J-200                               451.1360
 J-110                               419.0300
 J-234                               354.6890
 J-228                               448.2760
 J-109                               381.8490
 J-134                               418.9840
 J-95                                413.5690
 J-226                               348.2610
 J-232                               307.6670
 J-186                               419.4440
 J-23                                347.5020
 J-249                               404.8240
 J-57                                422.9680
 J-52                                415.3360
 J-38                                382.4720
 J-264                               397.2660
 J-75                                422.9680
 J-293                               298.5040
 J-160                               307.1520
 J-53                                415.3360
 J-221                               381.9140
 J-17                                401.5260
 J-119                               350.7130
 J-190                               372.3560
 J-253                               452.6830
 J-305                               294.9300
 J-188                               347.4650
 J-21                                346.1250
 J-83                                381.6640
 J-6                                 350.6940
 J-42                                303.7030
 J-309                               358.8360
 J-13                                315.5370
 J-233                               353.1000
 J-224                               298.4910
 J-62                                405.9620
 J-243                               378.6360
 J-225                               343.7070
 J-296                               300.5080
 J-97                                428.2700
 J-82                                351.6350
 J-133                               368.7070
 J-222                               388.4700
 J-361                               298.6340
 J-130                               403.1800
 J-78                                394.9600
 J-251                               329.0400
 J-1                                 321.8090
 J-93                                325.7500
 J-191                               411.5420
 J-120                               350.7130
 J-182                               387.8300
 J-43                                319.9270
 J-265                               401.0570
 J-168                               376.4070
 J-145                               327.2570
 J-41                                303.7030
 J-66                                401.5260
 J-103                               439.5920
 J-50                                381.9140
 J-204                               337.6170
 J-29                                347.9420
 J-73                                303.8750
 J-140                               407.6070
 J-312                               324.8360
 J-246                               420.5160
 J-118                               415.3360
 J-286                               430.0780
 J-71                                419.9430
 J-277                               338.2870
 J-70                                419.9460
 J-214                               298.4910
 J-116                               387.7570
 J-19                                319.9270
 J-99                                368.0000
 J-181                               387.6750
 J-107                               307.1520
 J-61                                349.2240
 J-167                               409.1920
 J-101                               349.2240
 J-60                                349.2240
 J-241                               344.5720
 J-68                                405.6580
 J-230                               390.6660
 J-210                               327.4910
 J-237                               418.1490
 J-273                               400.7590
 J-201                               451.1360
 J-295                               371.6030
 J-193                               301.8600
 J-132                               382.2760
 J-184                               300.7100
 J-152                               380.5340
 J-15                                358.6860
 J-162                               413.5690
 J-45                                394.9600
 J-49                                387.7540
 J-2                                 321.8090
 J-127                               356.4410
 J-173                               305.4070
 J-100                               400.9940
 J-147                               406.4280
 J-144                               376.4070
 J-284                               325.4390
 J-211                               327.4910
 J-91                                398.3630
 J-141                               350.7130
 J-150                               462.8160
 J-12                                315.5370
 J-272                               369.7390
 J-254                               352.5490
 J-267                               373.6590
 J-194                               404.0330
 J-129                               356.4410
 J-51                                381.9140
 J-212                               448.3760
 J-128                               356.4410
 J-64                                401.5260
 J-105                               441.9300
 J-166                               409.1920
 J-76                                404.0330
 J-171                               349.7920
 J-269                               340.8120
 J-37                                382.4720
 J-158                               387.5090
 J-175                               372.3560
 J-255                               467.0110
 J-245                               422.9650
 J-276                               358.6650
 J-63                                411.3840
 J-297                               441.1350
 J-199                               303.7030
 J-187                               418.5000
 J-3                                 343.3060
 J-242                               343.5840
 J-143                               377.1530
 J-189                               347.4650
 J-74                                303.8750
 J-136                               356.4410
 J-156                               429.0450
 J-257                               430.0720
 J-248                               329.5290
 J-131                               405.2060
 J-48                                387.7540
 J-256                               466.5630
 J-202                               367.4030
 J-304                               422.5930
 J-138                               380.5340
 J-206                               402.2300
 J-258                               355.2810
 J-262                               421.7160
 J-72                                303.8750
 J-250                               403.7760
 J-40                                368.7070
 J-218                               330.3860
 J-14                                358.6860
 J-44                                394.9600
 J-174                               372.7390
 J-142                               368.0000
 J-115                               387.7570
 J-35                                397.7540
 J-90                                397.7540
 J-203                               365.5060
 J-299                               329.6460
 J-30                                347.9420
 J-69                                419.9460
 J-113                               367.7920
 J-79                                400.9940
 J-183                               300.7100
 J-169                               418.9840
 J-301                               323.6110
 J-220                               336.4470
 J-266                               387.6750
 J-47                                387.9460
 J-34                                397.7540
 J-111                               419.0300
 J-104                               439.5920
 J-240                               422.3760
 J-205                               337.6170
 J-209                               298.4910
 J-46                                387.9460
 J-196                               372.7390
 J-22                                347.5020
 J-172                               327.2570
 J-39                                368.7070
 J-308                               324.6660
 J-146                               327.2570
 J-114                               367.7920
 J-159                               305.4070
 J-294                               328.3240
 J-306                               328.6050
 J-207                               402.2300
 J-239                               423.2800
 J-77                                404.0330
 J-213                               445.6080
 J-153                               398.6640
 J-208                               297.9610
 J-235                               383.7020
 J-92                                398.3630
 J-216                               371.0250
 J-86                                315.5370
 J-217                               334.9660
 J-126                               407.6070
 J-67                                405.6580
 J-148                               405.6580
 J-229                               447.5200
 J-123                               462.8160
 J-106                               307.1520
 J-124                               462.8160
 J-215                               374.4860
 J-84                                428.2700
 J-16                                401.5260
 J-4                                 343.3060
 J-259                               357.2100
 J-5                                 350.6940
 J-135                               418.9840
 J-231                               389.7540
 J-161                               387.7540
 J-87                                382.4720
 J-151                               419.0300
 J-122                               387.9460
 J-238                               419.1230
 J-252                               459.8250
 J-268                               318.9180
 J-85                                428.2700
 J-125                               407.6070
 J-102                               303.7030
 J-18                                319.9270
 J-302                               440.5580
 J-164                               301.7300
 J-56                                422.9680
 J-98                                368.0000
 J-157                               429.0450
 J-247                               330.3470
 J-117                               404.0330
 J-20                                346.1250
 J-80                                400.9940
 J-163                               301.2340
 J-283                               320.7260
 J-278                               415.5430
 J-154                               398.6640
 J-236                               385.2730
 J-300                               336.2610
 J-882                               367.4000
 716-A                               300.0000
 716-B                               300.0000
 J-281_IR1                           324.0200
 J-139_IR1                           398.3630
 J-165_IR1                           398.6640
 J-149_IR1                           351.6350
 J-137_IR1                           380.5340
 J-108_IR1                           382.2760
 J-223_IR1                           381.6640
 J-81_IR1                            351.6350
 J-200_IR1                           451.1360
 J-109_IR1                           381.8490
 J-95_IR1                            413.5690
 J-249_IR1                           404.8240
 J-57_IR1                            422.9680
 J-52_IR1                            415.3360
 J-38_IR1                            382.4720
 J-53_IR1                            415.3360
 J-119_IR1                           350.7130
 J-190_IR1                           372.3560
 J-309_IR1                           358.8360
 J-13_IR1                            315.5370
 J-97_IR1                            428.2700
 J-133_IR1                           368.7070
 J-130_IR1                           403.1800
 J-251_IR1                           329.0400
 J-93_IR1                            325.7500
 J-43_IR1                            319.9270
 J-168_IR1                           376.4070
 J-145_IR1                           327.2570
 J-103_IR1                           439.5920
 J-140_IR1                           407.6070
 J-118_IR1                           415.3360
 J-286_IR1                           430.0780
 J-116_IR1                           387.7570
 J-99_IR1                            368.0000
 J-167_IR1                           409.1920
 J-68_IR1                            405.6580
 J-230_IR1                           390.6660
 J-210_IR1                           327.4910
 J-152_IR1                           380.5340
 J-127_IR1                           356.4410
 J-147_IR1                           406.4280
 J-129_IR1                           356.4410
 J-212_IR1                           448.3760
 J-128_IR1                           356.4410
 J-105_IR1                           441.9300
 J-166_IR1                           409.1920
 J-158_IR1                           387.5090
 J-175_IR1                           372.3560
 J-276_IR1                           358.6650
 J-297_IR1                           441.1350
 J-3_IR1                             343.3060
 J-143_IR1                           377.1530
 J-136_IR1                           356.4410
 J-256_IR1                           466.5630
 J-72_IR1                            303.8750
 J-142_IR1                           368.0000
 J-79_IR1                            400.9940
 J-169_IR1                           418.9840
 J-301_IR1                           323.6110
 J-111_IR1                           419.0300
 J-104_IR1                           439.5920
 J-46_IR1                            387.9460
 J-196_IR1                           372.7390
 J-172_IR1                           327.2570
 J-114_IR1                           367.7920
 J-77_IR1                            404.0330
 J-153_IR1                           398.6640
 J-126_IR1                           407.6070
 J-67_IR1                            405.6580
 J-148_IR1                           405.6580
 J-215_IR1                           374.4860
 J-84_IR1                            428.2700
 J-135_IR1                           418.9840
 J-161_IR1                           387.7540
 J-87_IR1                            382.4720
 J-122_IR1                           387.9460
 J-85_IR1                            428.2700
 J-56_IR1                            422.9680
 J-98_IR1                            368.0000
 J-154_IR1                           398.6640
 Meter_J-94_9.4737                   325.7500
 IR_J-94_9.4737                      325.7500
 ND_J-94_9.4737                      325.7500
 Meter_J-94_28.4211                  325.7500
 IR_J-94_28.4211                     325.7500
 ND_J-94_28.4211                     325.7500
 Meter_J-94_47.3684                  325.7500
 IR_J-94_47.3684                     325.7500
 ND_J-94_47.3684                     325.7500
 Meter_J-94_66.3158                  325.7500
 IR_J-94_66.3158                     325.7500
 ND_J-94_66.3158                     325.7500
 Meter_J-94_85.2632                  325.7500
 IR_J-94_85.2632                     325.7500
 ND_J-94_85.2632                     325.7500
 Meter_J-94_104.2105                 325.7500
 IR_J-94_104.2105                    325.7500
 ND_J-94_104.2105                    325.7500
 Meter_J-94_123.1579                 325.7500
 IR_J-94_123.1579                    325.7500
 ND_J-94_123.1579                    325.7500
 Meter_J-94_142.1053                 325.7500
 IR_J-94_142.1053                    325.7500
 ND_J-94_142.1053                    325.7500
 Meter_J-94_161.0526                 325.7500
 IR_J-94_161.0526                    325.7500
 ND_J-94_161.0526                    325.7500
 Meter_J-94_180                      325.7500
 IR_J-94_180                         325.7500
 ND_J-94_180                         325.7500
 Meter_J-94_198.9474                 325.7500
 IR_J-94_198.9474                    325.7500
 ND_J-94_198.9474                    325.7500
 Meter_J-94_217.8947                 325.7500
 IR_J-94_217.8947                    325.7500
 ND_J-94_217.8947                    325.7500
 Meter_J-94_236.8421                 325.7500
 IR_J-94_236.8421                    325.7500
 ND_J-94_236.8421                    325.7500
 Meter_J-94_255.7895                 325.7500
 IR_J-94_255.7895                    325.7500
 ND_J-94_255.7895                    325.7500
 Meter_J-94_274.7368                 325.7500
 IR_J-94_274.7368                    325.7500
 ND_J-94_274.7368                    325.7500
 Meter_J-94_293.6842                 325.7500
 IR_J-94_293.6842                    325.7500
 ND_J-94_293.6842                    325.7500
 Meter_J-94_312.6316                 325.7500
 IR_J-94_312.6316                    325.7500
 ND_J-94_312.6316                    325.7500
 Meter_J-94_331.5789                 325.7500
 IR_J-94_331.5789                    325.7500
 ND_J-94_331.5789                    325.7500
 Meter_J-94_350.5263                 325.7500
 IR_J-94_350.5263                    325.7500
 ND_J-94_350.5263                    325.7500
 Meter_J-244_9.4737                  378.7110
 IR_J-244_9.4737                     378.7110
 ND_J-244_9.4737                     378.7110
 Meter_J-244_28.4211                 378.7110
 IR_J-244_28.4211                    378.7110
 ND_J-244_28.4211                    378.7110
 Meter_J-244_47.3684                 378.7110
 IR_J-244_47.3684                    378.7110
 ND_J-244_47.3684                    378.7110
 Meter_J-244_66.3158                 378.7110
 IR_J-244_66.3158                    378.7110
 ND_J-244_66.3158                    378.7110
 Meter_J-244_85.2632                 378.7110
 IR_J-244_85.2632                    378.7110
 ND_J-244_85.2632                    378.7110
 Meter_J-244_104.2105                378.7110
 IR_J-244_104.2105                   378.7110
 ND_J-244_104.2105                   378.7110
 Meter_J-244_123.1579                378.7110
 IR_J-244_123.1579                   378.7110
 ND_J-244_123.1579                   378.7110
 Meter_J-244_142.1053                378.7110
 IR_J-244_142.1053                   378.7110
 ND_J-244_142.1053                   378.7110
 Meter_J-244_161.0526                378.7110
 IR_J-244_161.0526                   378.7110
 ND_J-244_161.0526                   378.7110
 Meter_J-244_180                     378.7110
 IR_J-244_180                        378.7110
 ND_J-244_180                        378.7110
 Meter_J-244_198.9474                378.7110
 IR_J-244_198.9474                   378.7110
 ND_J-244_198.9474                   378.7110
 Meter_J-244_217.8947                378.7110
 IR_J-244_217.8947                   378.7110
 ND_J-244_217.8947                   378.7110
 Meter_J-244_236.8421                378.7110
 IR_J-244_236.8421                   378.7110
 ND_J-244_236.8421                   378.7110
 Meter_J-244_255.7895                378.7110
 IR_J-244_255.7895                   378.7110
 ND_J-244_255.7895                   378.7110
 Meter_J-244_274.7368                378.7110
 IR_J-244_274.7368                   378.7110
 ND_J-244_274.7368                   378.7110
 Meter_J-244_293.6842                378.7110
 IR_J-244_293.6842                   378.7110
 ND_J-244_293.6842                   378.7110
 Meter_J-244_312.6316                378.7110
 IR_J-244_312.6316                   378.7110
 ND_J-244_312.6316                   378.7110
 Meter_J-244_331.5789                378.7110
 IR_J-244_331.5789                   378.7110
 ND_J-244_331.5789                   378.7110
 Meter_J-244_350.5263                378.7110
 IR_J-244_350.5263                   378.7110
 ND_J-244_350.5263                   378.7110
 Meter_J-282_9.4737                  326.7810
 IR_J-282_9.4737                     326.7810
 ND_J-282_9.4737                     326.7810
 Meter_J-282_28.4211                 326.7810
 IR_J-282_28.4211                    326.7810
 ND_J-282_28.4211                    326.7810
 Meter_J-282_47.3684                 326.7810
 IR_J-282_47.3684                    326.7810
 ND_J-282_47.3684                    326.7810
 Meter_J-282_66.3158                 326.7810
 IR_J-282_66.3158                    326.7810
 ND_J-282_66.3158                    326.7810
 Meter_J-282_85.2632                 326.7810
 IR_J-282_85.2632                    326.7810
 ND_J-282_85.2632                    326.7810
 Meter_J-282_104.2105                326.7810
 IR_J-282_104.2105                   326.7810
 ND_J-282_104.2105                   326.7810
 Meter_J-282_123.1579                326.7810
 IR_J-282_123.1579                   326.7810
 ND_J-282_123.1579                   326.7810
 Meter_J-282_142.1053                326.7810
 IR_J-282_142.1053                   326.7810
 ND_J-282_142.1053                   326.7810
 Meter_J-282_161.0526                326.7810
 IR_J-282_161.0526                   326.7810
 ND_J-282_161.0526                   326.7810
 Meter_J-282_180                     326.7810
 IR_J-282_180                        326.7810
 ND_J-282_180                        326.7810
 Meter_J-282_198.9474                326.7810
 IR_J-282_198.9474                   326.7810
 ND_J-282_198.9474                   326.7810
 Meter_J-282_217.8947                326.7810
 IR_J-282_217.8947                   326.7810
 ND_J-282_217.8947                   326.7810
 Meter_J-282_236.8421                326.7810
 IR_J-282_236.8421                   326.7810
 ND_J-282_236.8421                   326.7810
 Meter_J-282_255.7895                326.7810
 IR_J-282_255.7895                   326.7810
 ND_J-282_255.7895                   326.7810
 Meter_J-282_274.7368                326.7810
 IR_J-282_274.7368                   326.7810
 ND_J-282_274.7368                   326.7810
 Meter_J-282_293.6842                326.7810
 IR_J-282_293.6842                   326.7810
 ND_J-282_293.6842                   326.7810
 Meter_J-282_312.6316                326.7810
 IR_J-282_312.6316                   326.7810
 ND_J-282_312.6316                   326.7810
 Meter_J-282_331.5789                326.7810
 IR_J-282_331.5789                   326.7810
 ND_J-282_331.5789                   326.7810
 Meter_J-282_350.5263                326.7810
 IR_J-282_350.5263                   326.7810
 ND_J-282_350.5263                   326.7810
 Meter_J-307_9.4737                  449.7010
 IR_J-307_9.4737                     449.7010
 ND_J-307_9.4737                     449.7010
 Meter_J-307_28.4211                 449.7010
 IR_J-307_28.4211                    449.7010
 ND_J-307_28.4211                    449.7010
 Meter_J-307_47.3684                 449.7010
 IR_J-307_47.3684                    449.7010
 ND_J-307_47.3684                    449.7010
 Meter_J-307_66.3158                 449.7010
 IR_J-307_66.3158                    449.7010
 ND_J-307_66.3158                    449.7010
 Meter_J-307_85.2632                 449.7010
 IR_J-307_85.2632                    449.7010
 ND_J-307_85.2632                    449.7010
 Meter_J-307_104.2105                449.7010
 IR_J-307_104.2105                   449.7010
 ND_J-307_104.2105                   449.7010
 Meter_J-307_123.1579                449.7010
 IR_J-307_123.1579                   449.7010
 ND_J-307_123.1579                   449.7010
 Meter_J-307_142.1053                449.7010
 IR_J-307_142.1053                   449.7010
 ND_J-307_142.1053                   449.7010
 Meter_J-307_161.0526                449.7010
 IR_J-307_161.0526                   449.7010
 ND_J-307_161.0526                   449.7010
 Meter_J-307_180                     449.7010
 IR_J-307_180                        449.7010
 ND_J-307_180                        449.7010
 Meter_J-307_198.9474                449.7010
 IR_J-307_198.9474                   449.7010
 ND_J-307_198.9474                   449.7010
 Meter_J-307_217.8947                449.7010
 IR_J-307_217.8947                   449.7010
 ND_J-307_217.8947                   449.7010
 Meter_J-307_236.8421                449.7010
 IR_J-307_236.8421                   449.7010
 ND_J-307_236.8421                   449.7010
 Meter_J-307_255.7895                449.7010
 IR_J-307_255.7895                   449.7010
 ND_J-307_255.7895                   449.7010
 Meter_J-307_274.7368                449.7010
 IR_J-307_274.7368                   449.7010
 ND_J-307_274.7368                   449.7010
 Meter_J-307_293.6842                449.7010
 IR_J-307_293.6842                   449.7010
 ND_J-307_293.6842                   449.7010
 Meter_J-307_312.6316                449.7010
 IR_J-307_312.6316                   449.7010
 ND_J-307_312.6316                   449.7010
 Meter_J-307_331.5789                449.7010
 IR_J-307_331.5789                   449.7010
 ND_J-307_331.5789                   449.7010
 Meter_J-307_350.5263                449.7010
 IR_J-307_350.5263                   449.7010
 ND_J-307_350.5263                   449.7010
 Meter_J-234_9.4737                  354.6890
 IR_J-234_9.4737                     354.6890
 ND_J-234_9.4737                     354.6890
 Meter_J-234_28.4211                 354.6890
 IR_J-234_28.4211                    354.6890
 ND_J-234_28.4211                    354.6890
 Meter_J-234_47.3684                 354.6890
 IR_J-234_47.3684                    354.6890
 ND_J-234_47.3684                    354.6890
 Meter_J-234_66.3158                 354.6890
 IR_J-234_66.3158                    354.6890
 ND_J-234_66.3158                    354.6890
 Meter_J-234_85.2632                 354.6890
 IR_J-234_85.2632                    354.6890
 ND_J-234_85.2632                    354.6890
 Meter_J-234_104.2105                354.6890
 IR_J-234_104.2105                   354.6890
 ND_J-234_104.2105                   354.6890
 Meter_J-234_123.1579                354.6890
 IR_J-234_123.1579                   354.6890
 ND_J-234_123.1579                   354.6890
 Meter_J-234_142.1053                354.6890
 IR_J-234_142.1053                   354.6890
 ND_J-234_142.1053                   354.6890
 Meter_J-234_161.0526                354.6890
 IR_J-234_161.0526                   354.6890
 ND_J-234_161.0526                   354.6890
 Meter_J-234_180                     354.6890
 IR_J-234_180                        354.6890
 ND_J-234_180                        354.6890
 Meter_J-234_198.9474                354.6890
 IR_J-234_198.9474                   354.6890
 ND_J-234_198.9474                   354.6890
 Meter_J-234_217.8947                354.6890
 IR_J-234_217.8947                   354.6890
 ND_J-234_217.8947                   354.6890
 Meter_J-234_236.8421                354.6890
 IR_J-234_236.8421                   354.6890
 ND_J-234_236.8421                   354.6890
 Meter_J-234_255.7895                354.6890
 IR_J-234_255.7895                   354.6890
 ND_J-234_255.7895                   354.6890
 Meter_J-234_274.7368                354.6890
 IR_J-234_274.7368                   354.6890
 ND_J-234_274.7368                   354.6890
 Meter_J-234_293.6842                354.6890
 IR_J-234_293.6842                   354.6890
 ND_J-234_293.6842                   354.6890
 Meter_J-234_312.6316                354.6890
 IR_J-234_312.6316                   354.6890
 ND_J-234_312.6316                   354.6890
 Meter_J-234_331.5789                354.6890
 IR_J-234_331.5789                   354.6890
 ND_J-234_331.5789                   354.6890
 Meter_J-234_350.5263                354.6890
 IR_J-234_350.5263                   354.6890
 ND_J-234_350.5263                   354.6890
 Meter_J-232_9.4737                  307.6670
 IR_J-232_9.4737                     307.6670
 ND_J-232_9.4737                     307.6670
 Meter_J-232_28.4211                 307.6670
 IR_J-232_28.4211                    307.6670
 ND_J-232_28.4211                    307.6670
 Meter_J-232_47.3684                 307.6670
 IR_J-232_47.3684                    307.6670
 ND_J-232_47.3684                    307.6670
 Meter_J-232_66.3158                 307.6670
 IR_J-232_66.3158                    307.6670
 ND_J-232_66.3158                    307.6670
 Meter_J-232_85.2632                 307.6670
 IR_J-232_85.2632                    307.6670
 ND_J-232_85.2632                    307.6670